/*--------------------------------*- C++ -*----------------------------------*\
  =========                 |
  \\      /  F ield         | OpenFOAM: The Open Source CFD Toolbox
   \\    /   O peration     | Website:  https://openfoam.org
    \\  /    A nd           | Version:  6
     \\/     M anipulation  |
\*---------------------------------------------------------------------------*/
FoamFile
{
    version     2.0;
    format      ascii;
    class       volScalarField;
    location    "0";
    object      nut;
}
// * * * * * * * * * * * * * * * * * * * * * * * * * * * * * * * * * * * * * //

dimensions      [0 2 -1 0 0 0 0];

internalField   uniform 0;

boundaryField
{
    #includeEtc "caseDicts/setConstraintTypes"

    "(inlet|outlet)"
    {
        type            calculated;
        value           uniform 0;
    }

    wall
    {
        type            nutkWallFunction;
        value           uniform 0;
    }
  /* cyclic_In1
    {
        type            nutkWallFunction;
        value           $internalField;
    }
   cyclic_In2
     {
        type            nutkWallFunction;
        value           $internalField;
    }
   cyclic_Out1
     {
        type            nutkWallFunction;
        value           $internalField;
    }
cyclic_Out2
     {
        type            nutkWallFunction;
        value           $internalField;
    }
*/
}


// ************************************************************************* //
